<?xml version="1.0" encoding="UTF-8"?>

<!-- generated on 2025-12-01 09:39:29 by Eclipse SUMO netedit Version 1.18.0
-->

<routes xmlns:xsi="http://www.w3.org/2001/XMLSchema-instance" xsi:noNamespaceSchemaLocation="http://sumo.dlr.de/xsd/routes_file.xsd">
    <!-- Vehicles, persons and containers (sorted by depart) -->
    <trip id="t_0" depart="0.00" from="189631703" to="-182068383" via="26718521 -593461282 -274965448 -378926523"/>
    <trip id="t_1" depart="0.00" from="358973294" to="1120528687#1" via="308765071 -375464253"/>
    <trip id="t_2" depart="0.00" from="-284958514" to="-34726797" via="-284958511 26718521 -49832621 -274965453 -274965447 -593461281 -34711835 -295691236"/>
    <trip id="t_3" depart="0.00" from="-314669929" to="182068376" via="-182068373 238095390 182068378 384542668 618077409 316753890"/>
    <trip id="t_4" depart="0.00" from="-1096325598" to="-162451788" via="-618077411 -781372077 384542658 297659266 -238095386"/>
</routes>
