<?xml version="1.0" encoding="UTF-8"?>
<routes xmlns:xsi="http://www.w3.org/2001/XMLSchema-instance" xsi:noNamespaceSchemaLocation="http://sumo.dlr.de/xsd/routes_file.xsd">
    <trip id="v0" depart="1.00" from="A0A1" to="C2C1"/>
    <trip id="v1" depart="1.00" from="C2C1" to="A0A1"/>
    <trip id="v2" depart="1.00" from="A2A1" to="C0B0"/>
    <trip id="v3" depart="1.00" from="C0B0" to="A2A1"/>
    <trip id="v4" depart="1.00" from="B1B0" to="B1A1"/> 
</routes>