<?xml version="1.0" encoding="UTF-8"?>

<!-- generated on 2025-11-03 09:35:31 by Eclipse SUMO sumo Version 1.18.0
-->

<configuration xmlns:xsi="http://www.w3.org/2001/XMLSchema-instance" xsi:noNamespaceSchemaLocation="http://sumo.dlr.de/xsd/sumoConfiguration.xsd">

    <input>
        <net-file value="kronach_2.net.xml"/>
        <route-files value="kronach_2.rou.xml"/>
    </input>

</configuration>

