<?xml version="1.0" encoding="UTF-8"?>

<!-- generated on 2025-12-01 09:21:41 by Eclipse SUMO netconvert Version 1.18.0
<configuration xmlns:xsi="http://www.w3.org/2001/XMLSchema-instance" xsi:noNamespaceSchemaLocation="http://sumo.dlr.de/xsd/netconvertConfiguration.xsd">

    <input>
        <type-files value="${SUMO_HOME}/data/typemap/osmNetconvert.typ.xml"/>
        <osm-files value="osm_bbox.osm.xml.gz"/>
    </input>

    <output>
        <output-file value="osm.net.xml.gz"/>
        <output.street-names value="true"/>
        <output.original-names value="true"/>
    </output>

    <projection>
        <proj.utm value="true"/>
    </projection>

    <processing>
        <geometry.remove value="true"/>
        <roundabouts.guess value="true"/>
    </processing>

    <tls_building>
        <tls.discard-simple value="true"/>
        <tls.join value="true"/>
        <tls.guess-signals value="true"/>
        <tls.default-type value="actuated"/>
    </tls_building>

    <ramp_guessing>
        <ramps.guess value="true"/>
    </ramp_guessing>

    <junctions>
        <junctions.join value="true"/>
        <junctions.corner-detail value="5"/>
    </junctions>

</configuration>
-->

<net version="1.16" junctionCornerDetail="5" limitTurnSpeed="5.50" xmlns:xsi="http://www.w3.org/2001/XMLSchema-instance" xsi:noNamespaceSchemaLocation="http://sumo.dlr.de/xsd/net_file.xsd">

    <location netOffset="-638862.99,-5560767.54" convBoundary="0.00,0.00,27737.78,8576.46" origBoundary="10.947172,50.181446,11.336120,50.254499" projParameter="+proj=utm +zone=32 +ellps=WGS84 +datum=WGS84 +units=m +no_defs"/>

    <type id="highway.motorway" priority="14" numLanes="2" speed="39.44" allow="private emergency authority army vip passenger hov taxi bus coach delivery truck trailer motorcycle evehicle custom1 custom2" oneway="1"/>
    <type id="highway.motorway_link" priority="9" numLanes="1" speed="22.22" allow="private emergency authority army vip passenger hov taxi bus coach delivery truck trailer motorcycle evehicle custom1 custom2" oneway="1"/>
    <type id="highway.primary" priority="12" numLanes="2" speed="27.78" disallow="tram rail_urban rail rail_electric rail_fast ship" oneway="0"/>
    <type id="highway.primary_link" priority="7" numLanes="1" speed="22.22" disallow="tram rail_urban rail rail_electric rail_fast ship" oneway="0"/>
    <type id="highway.secondary" priority="11" numLanes="1" speed="27.78" disallow="tram rail_urban rail rail_electric rail_fast ship" oneway="0"/>
    <type id="highway.secondary_link" priority="6" numLanes="1" speed="22.22" disallow="tram rail_urban rail rail_electric rail_fast ship" oneway="0"/>
    <type id="highway.tertiary" priority="10" numLanes="1" speed="22.22" disallow="tram rail_urban rail rail_electric rail_fast ship" oneway="0"/>
    <type id="highway.tertiary_link" priority="5" numLanes="1" speed="22.22" disallow="tram rail_urban rail rail_electric rail_fast ship" oneway="0"/>
    <type id="highway.trunk" priority="13" numLanes="2" speed="27.78" disallow="pedestrian bicycle tram rail_urban rail rail_electric rail_fast ship" oneway="0"/>
    <type id="highway.trunk_link" priority="8" numLanes="1" speed="22.22" disallow="pedestrian bicycle tram rail_urban rail rail_electric rail_fast ship" oneway="0"/>

    <edge id=":100685414_0" function="internal">
        <lane id=":100685414_0_0" index="0" disallow="tram rail_urban rail rail_electric rail_fast ship" speed="27.78" length="0.69" shape="2220.33,5218.12 2220.13,5218.13 2219.99,5218.13 2219.85,5218.12 2219.65,5218.10"/>
    </edge>
    <edge id=":100685414_1" function="internal">
        <lane id=":100685414_1_0" index="0" disallow="tram rail_urban rail rail_electric rail_fast ship" speed="27.78" length="0.23" shape="2219.94,5214.92 2220.00,5214.92 2220.05,5214.92 2220.10,5214.92 2220.16,5214.92"/>
    </edge>
    <edge id=":100685417_0" function="internal">
        <lane id=":100685417_0_0" index="0" disallow="tram rail_urban rail rail_electric rail_fast ship" speed="27.78" length="26.26" shape="2303.25,5194.90 2298.37,5197.47 2291.66,5201.09 2284.90,5204.60 2279.87,5206.82"/>
    </edge>
    <edge id=":100685417_1" function="internal">
        <lane id=":100685417_1_0" index="0" disallow="pedestrian bicycle tram rail_urban rail rail_electric rail_fast ship" speed="20.62" length="25.89" shape="2278.86,5203.78 2283.72,5201.34 2289.99,5197.20 2295.95,5192.62 2299.83,5188.82"/>
    </edge>
    <edge id=":100685417_2" function="internal">
        <lane id=":100685417_2_0" index="0" disallow="tram rail_urban rail rail_electric rail_fast ship" speed="27.78" length="25.83" shape="2278.86,5203.78 2283.83,5201.59 2290.45,5198.14 2297.03,5194.57 2301.85,5192.02"/>
    </edge>
    <edge id=":100685417_3" function="internal">
        <lane id=":100685417_3_0" index="0" disallow="tram rail_urban rail rail_electric rail_fast ship" speed="3.65" length="1.34" shape="2278.86,5203.78 2280.16,5204.13"/>
    </edge>
    <edge id=":100685417_4" function="internal">
        <lane id=":100685417_4_0" index="0" disallow="tram rail_urban rail rail_electric rail_fast ship" speed="3.65" length="3.33" shape="2280.16,5204.13 2280.26,5204.16 2280.89,5204.80 2280.76,5205.68 2279.87,5206.82"/>
    </edge>
    <edge id=":100685430_0" function="internal">
        <lane id=":100685430_0_0" index="0" disallow="pedestrian bicycle tram rail_urban rail rail_electric rail_fast ship" speed="27.78" length="2.98" shape="2248.40,5052.71 2249.58,5049.93"/>
        <lane id=":100685430_0_1" index="1" disallow="pedestrian bicycle tram rail_urban rail rail_electric rail_fast ship" speed="27.78" length="2.98" shape="2251.35,5053.93 2252.51,5051.23"/>
    </edge>
    <edge id=":100685430_2" function="internal">
        <lane id=":100685430_2_0" index="0" disallow="pedestrian bicycle tram rail_urban rail rail_electric rail_fast ship" speed="25.00" length="3.11" shape="2245.57,5051.54 2245.86,5050.67 2246.06,5050.07 2246.29,5049.48 2246.66,5048.63"/>
    </edge>
    <edge id=":1028294637_0" function="internal">
        <lane id=":1028294637_0_0" index="0" disallow="pedestrian bicycle tram rail_urban rail rail_electric rail_fast ship" speed="23.61" length="0.30" shape="25493.58,4501.23 25493.38,4501.00"/>
        <lane id=":1028294637_0_1" index="1" disallow="pedestrian bicycle tram rail_urban rail rail_electric rail_fast ship" speed="23.61" length="0.30" shape="25495.98,4499.10 25495.78,4498.88"/>
    </edge>
    <edge id=":1028299789_0" function="internal">
        <lane id=":1028299789_0_0" index="0" disallow="pedestrian tram rail_urban rail rail_electric rail_fast ship" speed="13.89" length="0.73" shape="26166.39,5796.64 26165.83,5797.11"/>
    </edge>
    <edge id=":1028299789_1" function="internal">
        <lane id=":1028299789_1_0" index="0" disallow="pedestrian tram rail_urban rail rail_electric rail_fast ship" speed="13.89" length="1.68" shape="26162.66,5796.65 26162.69,5796.16 26162.65,5795.82 26162.57,5795.48 26162.50,5794.99"/>
    </edge>
    <edge id=":1028299789_2" function="internal">
        <lane id=":1028299789_2_0" index="0" disallow="tram rail_urban rail rail_electric rail_fast ship" speed="3.65" length="2.34" shape="26162.66,5796.65 26163.62,5795.58 26164.47,5795.30"/>
    </edge>
    <edge id=":1028299789_3" function="internal">
        <lane id=":1028299789_3_0" index="0" disallow="tram rail_urban rail rail_electric rail_fast ship" speed="3.65" length="2.34" shape="26164.47,5795.30 26165.21,5795.81 26165.83,5797.11"/>
    </edge>
    <edge id=":1028803541_0" function="internal">
        <lane id=":1028803541_0_0" index="0" disallow="tram rail_urban rail rail_electric rail_fast ship" speed="22.22" length="0.39" shape="11034.90,7685.98 11034.52,7686.05"/>
    </edge>
    <edge id=":1028803541_1" function="internal">
        <lane id=":1028803541_1_0" index="0" disallow="tram rail_urban rail rail_electric rail_fast ship" speed="22.22" length="0.13" shape="11034.02,7682.89 11034.15,7682.86"/>
    </edge>
    <edge id=":1028854037_0" function="internal">
        <lane id=":1028854037_0_0" index="0" disallow="pedestrian bicycle tram rail_urban rail rail_electric rail_fast ship" speed="8.98" length="6.28" shape="26160.07,5753.42 26161.13,5751.97 26161.53,5750.77 26161.55,5749.42 26161.51,5747.55"/>
    </edge>
    <edge id=":1028854037_1" function="internal">
        <lane id=":1028854037_1_0" index="0" disallow="pedestrian tram rail_urban rail rail_electric rail_fast ship" speed="13.89" length="6.38" shape="26160.07,5753.42 26161.37,5752.06 26162.39,5751.27 26163.53,5750.62 26165.19,5749.71"/>
    </edge>
    <edge id=":1037928367_0" function="internal">
        <lane id=":1037928367_0_0" index="0" disallow="pedestrian bicycle tram rail_urban rail rail_electric rail_fast ship" speed="25.00" length="3.27" shape="26047.21,5131.50 26046.80,5130.62 26046.50,5130.04 26046.14,5129.47 26045.60,5128.67"/>
    </edge>
    <edge id=":1037928367_1" function="internal">
        <lane id=":1037928367_1_0" index="0" disallow="pedestrian bicycle tram rail_urban rail rail_electric rail_fast ship" speed="27.78" length="3.69" shape="26050.12,5130.16 26048.49,5126.98"/>
        <lane id=":1037928367_1_1" index="1" disallow="pedestrian bicycle tram rail_urban rail rail_electric rail_fast ship" speed="27.78" length="3.69" shape="26053.02,5128.81 26051.29,5125.43"/>
    </edge>
    <edge id=":1037928371_0" function="internal">
        <lane id=":1037928371_0_0" index="0" disallow="pedestrian bicycle tram rail_urban rail rail_electric rail_fast ship" speed="25.00" length="3.14" shape="26034.78,5066.93 26036.23,5069.71"/>
    </edge>
    <edge id=":1037928371_1" function="internal">
        <lane id=":1037928371_1_0" index="0" disallow="pedestrian bicycle tram rail_urban rail rail_electric rail_fast ship" speed="27.78" length="3.19" shape="26031.75,5068.46 26033.44,5071.27"/>
        <lane id=":1037928371_1_1" index="1" disallow="pedestrian bicycle tram rail_urban rail rail_electric rail_fast ship" speed="27.78" length="3.19" shape="26029.06,5070.18 26030.64,5072.83"/>
    </edge>
    <edge id=":1037928398_0" function="internal">
        <lane id=":1037928398_0_0" index="0" disallow="pedestrian bicycle tram rail_urban rail rail_electric rail_fast ship" speed="19.44" length="7.96" shape="25139.66,4180.68 25132.75,4176.73"/>
    </edge>
    <edge id=":1037928398_1" function="internal">
        <lane id=":1037928398_1_0" index="0" disallow="pedestrian bicycle tram rail_urban rail rail_electric rail_fast ship" speed="16.77" length="9.02" shape="25135.38,4170.90 25137.82,4171.99 25139.56,4172.61 25141.38,4172.88 25144.04,4172.90"/>
    </edge>
    <edge id=":1037928398_2" function="internal">
        <lane id=":1037928398_2_0" index="0" disallow="pedestrian bicycle tram rail_urban rail rail_electric rail_fast ship" speed="19.44" length="9.22" shape="25135.38,4170.90 25137.43,4172.48 25138.26,4174.30 25139.08,4176.15 25141.09,4177.81"/>
    </edge>
    <edge id=":1037928398_3" function="internal">
        <lane id=":1037928398_3_0" index="0" disallow="pedestrian bicycle tram rail_urban rail rail_electric rail_fast ship" speed="3.65" length="1.44" shape="25134.06,4173.82 25134.83,4175.04"/>
    </edge>
    <edge id=":1037928398_4" function="internal">
        <lane id=":1037928398_4_0" index="0" disallow="pedestrian bicycle tram rail_urban rail rail_electric rail_fast ship" speed="3.65" length="3.23" shape="25134.83,4175.04 25134.86,4175.93 25134.17,4176.50 25132.75,4176.73"/>
    </edge>
    <edge id=":1037928459_0" function="internal">
        <lane id=":1037928459_0_0" index="0" disallow="pedestrian bicycle tram rail_urban rail rail_electric rail_fast ship" speed="8.65" length="6.46" shape="26173.64,5745.00 26174.26,5746.80 26174.86,5748.03 26175.79,5748.97 26177.39,5749.92"/>
    </edge>
    <edge id=":1037928459_1" function="internal">
        <lane id=":1037928459_1_0" index="0" disallow="pedestrian tram rail_urban rail rail_electric rail_fast ship" speed="13.89" length="6.45" shape="26171.17,5748.46 26173.08,5748.65 26174.41,5748.79 26175.67,5749.13 26177.39,5749.92"/>
    </edge>
    <edge id=":1039348610_0" function="internal">
        <lane id=":1039348610_0_0" index="0" disallow="tram rail_urban rail rail_electric rail_fast ship" speed="27.78" length="7.90" shape="17684.05,6834.27 17676.50,6831.93"/>
    </edge>
    <edge id=":1039348610_1" function="internal">
        <lane id=":1039348610_1_0" index="0" disallow="tram rail_urban rail rail_electric rail_fast ship" speed="27.78" length="8.40" shape="17678.61,6825.89 17680.67,6827.14 17681.71,6828.64 17682.78,6830.09 17684.88,6831.18"/>
    </edge>
    <edge id=":1039349381_0" function="internal">
        <lane id=":1039349381_0_0" index="0" disallow="tram rail_urban rail rail_electric rail_fast ship" speed="27.78" length="0.53" shape="18250.42,7025.60 18250.40,7025.76 18250.38,7025.87 18250.36,7025.97 18250.32,7026.13"/>
    </edge>
    <edge id=":1039349381_1" function="internal">
        <lane id=":1039349381_1_0" index="0" disallow="tram rail_urban rail rail_electric rail_fast ship" speed="27.78" length="0.18" shape="18247.22,7025.34 18247.23,7025.29 18247.24,7025.25 18247.25,7025.22 18247.25,7025.17"/>
    </edge>
    <edge id=":1039350137_0" function="internal">
        <lane id=":1039350137_0_0" index="0" disallow="tram rail_urban rail rail_electric rail_fast ship" speed="18.05" length="0.54" shape="17760.59,6859.42 17760.60,6859.57 17760.58,6859.68 17760.55,6859.79 17760.52,6859.95"/>
    </edge>
    <edge id=":1039350137_1" function="internal">
        <lane id=":1039350137_1_0" index="0" disallow="tram rail_urban rail rail_electric rail_fast ship" speed="18.05" length="0.25" shape="17757.34,6859.58 17757.42,6859.82"/>
    </edge>
    <edge id=":1040512640_0" function="internal">
        <lane id=":1040512640_0_0" index="0" disallow="tram rail_urban rail rail_electric rail_fast ship" speed="27.78" length="7.93" shape="26837.88,3338.76 26836.38,3340.55 26835.99,3342.28 26835.63,3344.06 26834.25,3345.99"/>
        <lane id=":1040512640_0_1" index="1" disallow="tram rail_urban rail rail_electric rail_fast ship" speed="27.78" length="7.93" shape="26837.88,3338.76 26832.09,3343.64"/>
    </edge>
    <edge id=":1040512640_2" function="internal">
        <lane id=":1040512640_2_0" index="0" disallow="tram rail_urban rail rail_electric rail_fast ship" speed="27.78" length="7.84" shape="26829.93,3341.28 26835.93,3336.23"/>
    </edge>
    <edge id=":1040512716_0" function="internal">
        <lane id=":1040512716_0_0" index="0" disallow="tram rail_urban rail rail_electric rail_fast ship" speed="16.67" length="0.10" shape="25417.08,3619.46 25417.06,3619.39"/>
    </edge>
    <edge id=":1040512716_1" function="internal">
        <lane id=":1040512716_1_0" index="0" disallow="tram rail_urban rail rail_electric rail_fast ship" speed="16.67" length="0.10" shape="25420.22,3618.88 25420.21,3618.80"/>
    </edge>
    <edge id=":1045015433_0" function="internal">
        <lane id=":1045015433_0_0" index="0" disallow="tram rail_urban rail rail_electric rail_fast ship" speed="27.78" length="8.16" shape="2139.60,5196.43 2137.26,5195.62 2135.38,5195.75 2133.54,5195.82 2131.31,5194.83"/>
        <lane id=":1045015433_0_1" index="1" disallow="tram rail_urban rail rail_electric rail_fast ship" speed="27.78" length="8.16" shape="2139.60,5196.43 2137.64,5195.26 2136.32,5194.44 2135.03,5193.56 2133.18,5192.23"/>
    </edge>
    <edge id=":1045015433_2" function="internal">
        <lane id=":1045015433_2_0" index="0" disallow="tram rail_urban rail rail_electric rail_fast ship" speed="27.78" length="7.40" shape="2135.04,5189.63 2136.83,5190.91 2138.07,5191.75 2139.35,5192.55 2141.23,5193.67"/>
    </edge>
    <edge id=":1045016266_0" function="internal">
        <lane id=":1045016266_0_0" index="0" disallow="pedestrian tram rail_urban rail rail_electric rail_fast ship" speed="19.44" length="0.31" shape="2965.90,4641.27 2965.59,4641.23"/>
    </edge>
    <edge id=":1045016266_1" function="internal">
        <lane id=":1045016266_1_0" index="0" disallow="pedestrian tram rail_urban rail rail_electric rail_fast ship" speed="19.44" length="0.28" shape="2965.98,4638.06 2966.26,4638.09"/>
    </edge>
    <edge id=":104623332_0" function="internal">
        <lane id=":104623332_0_0" index="0" disallow="pedestrian bicycle tram rail_urban rail rail_electric rail_fast ship" speed="25.00" length="2.87" shape="2270.57,5046.45 2269.46,5049.09"/>
    </edge>
    <edge id=":104623332_1" function="internal">
        <lane id=":104623332_1_0" index="0" disallow="pedestrian bicycle tram rail_urban rail rail_electric rail_fast ship" speed="27.78" length="3.02" shape="2267.64,5045.16 2266.46,5047.89"/>
        <lane id=":104623332_1_1" index="1" disallow="pedestrian bicycle tram rail_urban rail rail_electric rail_fast ship" speed="27.78" length="3.02" shape="2264.71,5043.88 2263.49,5046.70"/>
    </edge>
    <edge id=":105263240_0" function="internal">
        <lane id=":105263240_0_0" index="0" disallow="pedestrian bicycle tram rail_urban rail rail_electric rail_fast ship" speed="23.61" length="3.21" shape="1882.98,6171.66 1883.46,6170.84 1883.77,6170.27 1884.04,6169.67 1884.41,6168.79"/>
    </edge>
    <edge id=":105263240_1" function="internal">
        <lane id=":105263240_1_0" index="0" disallow="pedestrian bicycle tram rail_urban rail rail_electric rail_fast ship" speed="27.78" length="3.47" shape="1885.98,6173.12 1887.36,6170.02"/>
        <lane id=":105263240_1_1" index="1" disallow="pedestrian bicycle tram rail_urban rail rail_electric rail_fast ship" speed="27.78" length="3.47" shape="1888.87,6174.50 1890.32,6171.26"/>
    </edge>
    <edge id=":1067347652_0" function="internal">
        <lane id=":1067347652_0_0" index="0" disallow="tram rail_urban rail rail_electric rail_fast ship" speed="25.00" length="0.29" shape="12515.04,2925.34 12514.81,2925.52"/>
    </edge>
    <edge id=":1067347652_1" function="internal">
        <lane id=":1067347652_1_0" index="0" disallow="tram rail_urban rail rail_electric rail_fast ship" speed="25.00" length="0.31" shape="12512.88,2922.96 12513.13,2922.78"/>
    </edge>
    <edge id=":1067714516_0" function="internal">
        <lane id=":1067714516_0_0" index="0" disallow="tram rail_urban rail rail_electric rail_fast ship" speed="11.11" length="0.30" shape="17938.46,3685.36 17938.18,3685.48"/>
    </edge>
    <edge id=":1067714516_1" function="internal">
        <lane id=":1067714516_1_0" index="0" disallow="tram rail_urban rail rail_electric rail_fast ship" speed="11.11" length="0.20" shape="17936.96,3682.52 17937.14,3682.44"/>
    </edge>
    <edge id=":107745971_0" function="internal">
        <lane id=":107745971_0_0" index="0" disallow="pedestrian bicycle tram rail_urban rail rail_electric rail_fast ship" speed="23.61" length="3.09" shape="2390.02,4778.99 2388.70,4781.79"/>
    </edge>
    <edge id=":107745971_1" function="internal">
        <lane id=":107745971_1_0" index="0" disallow="pedestrian bicycle tram rail_urban rail rail_electric rail_fast ship" speed="27.78" length="3.15" shape="2387.05,4777.51 2385.79,4780.47"/>
        <lane id=":107745971_1_1" index="1" disallow="pedestrian bicycle tram rail_urban rail rail_electric rail_fast ship" speed="27.78" length="3.15" shape="2384.08,4776.32 2382.88,4779.14"/>
    </edge>
    <edge id=":107763684_0" function="internal">
        <lane id=":107763684_0_0" index="0" disallow="pedestrian bicycle tram rail_urban rail rail_electric rail_fast ship" speed="19.44" length="0.29" shape="2692.28,4604.30 2692.00,4604.26"/>
    </edge>
    <edge id=":107763684_1" function="internal">
        <lane id=":107763684_1_0" index="0" disallow="pedestrian bicycle tram rail_urban rail rail_electric rail_fast ship" speed="19.44" length="0.31" shape="2692.94,4597.93 2693.24,4597.98"/>
        <lane id=":107763684_1_1" index="1" disallow="pedestrian bicycle tram rail_urban rail rail_electric rail_fast ship" speed="19.44" length="0.31" shape="2692.47,4601.09 2692.76,4601.14"/>
    </edge>
    <edge id=":10788510_0" function="internal">
        <lane id=":10788510_0_0" index="0" disallow="pedestrian bicycle tram rail_urban rail rail_electric rail_fast ship" speed="13.89" length="8.60" shape="1453.70,6630.62 1451.30,6631.16 1449.47,6630.81 1447.65,6630.49 1445.30,6631.14"/>
    </edge>
    <edge id=":10788510_1" function="internal">
        <lane id=":10788510_1_0" index="0" disallow="pedestrian bicycle tram rail_urban rail rail_electric rail_fast ship" speed="16.67" length="8.99" shape="1443.84,6628.29 1446.02,6626.63 1447.12,6624.91 1448.27,6623.30 1450.59,6621.94"/>
        <lane id=":10788510_1_1" index="1" disallow="pedestrian bicycle tram rail_urban rail rail_electric rail_fast ship" speed="16.67" length="8.99" shape="1443.84,6628.29 1446.10,6627.15 1447.67,6626.43 1449.29,6625.81 1451.67,6624.95"/>
    </edge>
    <edge id=":10788517_0" function="internal">
        <lane id=":10788517_0_0" index="0" disallow="pedestrian bicycle tram rail_urban rail rail_electric rail_fast ship" speed="23.61" length="3.25" shape="2411.75,4670.72 2412.23,4669.88 2412.53,4669.29 2412.78,4668.68 2413.12,4667.78"/>
    </edge>
    <edge id=":10788517_1" function="internal">
        <lane id=":10788517_1_0" index="0" disallow="pedestrian bicycle tram rail_urban rail rail_electric rail_fast ship" speed="27.78" length="3.37" shape="2414.91,4672.00 2416.12,4668.90"/>
        <lane id=":10788517_1_1" index="1" disallow="pedestrian bicycle tram rail_urban rail rail_electric rail_fast ship" speed="27.78" length="3.37" shape="2417.88,4673.20 2419.12,4670.02"/>
    </edge>
    <edge id=":1083717868_0" function="internal">
        <lane id=":1083717868_0_0" index="0" disallow="tram rail_urban rail rail_electric rail_fast ship" speed="20.83" length="0.10" shape="19323.44,8058.48 19323.52,8058.49"/>
    </edge>
    <edge id=":1083717868_1" function="internal">
        <lane id=":1083717868_1_0" index="0" disallow="tram rail_urban rail rail_electric rail_fast ship" speed="20.83" length="0.10" shape="19323.80,8055.30 19323.88,8055.31"/>
    </edge>
    <edge id=":1097014176_0" function="internal">
        <lane id=":1097014176_0_0" index="0" disallow="tram rail_urban rail rail_electric rail_fast ship" speed="20.83" length="0.51" shape="19133.20,8027.48 19133.06,8027.43 19132.96,8027.40 19132.86,8027.36 19132.72,8027.30"/>
    </edge>
    <edge id=":1097014176_1" function="internal">
        <lane id=":1097014176_1_0" index="0" disallow="tram rail_urban rail rail_electric rail_fast ship" speed="20.83" length="0.17" shape="19133.96,8024.35 19134.01,8024.37 19134.04,8024.39 19134.08,8024.40 19134.12,8024.41"/>
    </edge>
    <edge id=":11206975485_0" function="internal">
        <lane id=":11206975485_0_0" index="0" disallow="pedestrian bicycle tram rail_urban rail rail_electric rail_fast ship" speed="20.83" length="0.10" shape="26149.41,5626.96 26149.41,5626.96"/>
        <lane id=":11206975485_0_1" index="1" disallow="pedestrian bicycle tram rail_urban rail rail_electric rail_fast ship" speed="20.83" length="0.10" shape="26152.60,5626.76 26152.60,5626.76"/>
    </edge>
    <edge id=":1127086263_0" function="internal">
        <lane id=":1127086263_0_0" index="0" disallow="tram rail_urban rail rail_electric rail_fast ship" speed="13.89" length="8.07" shape="26996.73,6304.27 26990.50,6299.00"/>
        <lane id=":1127086263_0_1" index="1" disallow="tram rail_urban rail rail_electric rail_fast ship" speed="13.89" length="8.07" shape="26998.73,6301.77 26992.63,6296.62"/>
    </edge>
    <edge id=":1127086263_2" function="internal">
        <lane id=":1127086263_2_0" index="0" disallow="tram rail_urban rail rail_electric rail_fast ship" speed="13.89" length="8.25" shape="26996.90,6291.84 26998.96,6293.01 27000.76,6293.12 27002.58,6293.20 27004.72,6294.27"/>
        <lane id=":1127086263_2_1" index="1" disallow="tram rail_urban rail rail_electric rail_fast ship" speed="13.89" length="8.25" shape="26994.77,6294.23 26996.86,6295.43 26998.69,6295.57 27000.54,6295.66 27002.72,6296.77"/>
        <lane id=":1127086263_2_2" index="2" disallow="tram rail_urban rail rail_electric rail_fast ship" speed="13.89" length="8.25" shape="26994.77,6294.23 27000.72,6299.27"/>
    </edge>
    <edge id=":1127086317_0" function="internal">
        <lane id=":1127086317_0_0" index="0" disallow="tram rail_urban rail rail_electric rail_fast ship" speed="13.89" length="8.01" shape="27048.39,6339.23 27041.86,6334.59"/>
    </edge>
    <edge id=":1127086317_1" function="internal">
        <lane id=":1127086317_1_0" index="0" disallow="tram rail_urban rail rail_electric rail_fast ship" speed="13.89" length="8.80" shape="27047.43,6326.77 27049.14,6328.60 27049.75,6330.39 27050.37,6332.18 27052.09,6334.00"/>
        <lane id=":1127086317_1_1" index="1" disallow="tram rail_urban rail rail_electric rail_fast ship" speed="13.89" length="8.80" shape="27045.57,6329.38 27047.29,6331.21 27047.90,6333.00 27048.52,6334.79 27050.24,6336.62"/>
    </edge>
    <edge id=":1143395191_0" function="internal">
        <lane id=":1143395191_0_0" index="0" disallow="tram rail_urban rail rail_electric rail_fast ship" speed="3.65" length="4.67" shape="22866.12,4106.10 22864.75,4105.65 22864.15,4104.99 22864.31,4104.11 22865.25,4103.02"/>
    </edge>
    <edge id=":11443291827_0" function="internal">
        <lane id=":11443291827_0_0" index="0" disallow="tram rail_urban rail rail_electric rail_fast ship" speed="13.69" length="11.00" shape="17578.71,4137.98 17576.71,4140.33 17575.71,4142.43 17575.18,4144.79 17574.63,4147.91"/>
    </edge>
    <edge id=":11443291827_1" function="internal">
        <lane id=":11443291827_1_0" index="0" disallow="tram rail_urban rail rail_electric rail_fast ship" speed="27.78" length="10.85" shape="17574.69,4137.10 17574.88,4140.21 17575.08,4142.54 17575.07,4144.86 17574.63,4147.91"/>
    </edge>
    <edge id=":114661561_0" function="internal">
        <lane id=":114661561_0_0" index="0" disallow="tram rail_urban rail rail_electric rail_fast ship" speed="13.89" length="6.62" shape="1229.26,7311.41 1228.07,7312.89 1227.29,7313.93 1226.58,7315.02 1225.59,7316.64"/>
        <lane id=":114661561_0_1" index="1" disallow="tram rail_urban rail rail_electric rail_fast ship" speed="13.89" length="6.62" shape="1226.78,7309.39 1225.51,7310.97 1224.68,7312.08 1223.91,7313.25 1222.85,7314.98"/>
    </edge>
    <edge id=":114661561_2" function="internal">
        <lane id=":114661561_2_0" index="0" disallow="tram rail_urban rail rail_electric rail_fast ship" speed="13.89" length="10.63" shape="1214.65,7309.99 1216.81,7308.32 1219.27,7308.53 1221.83,7308.81 1224.30,7307.37"/>
    </edge>
    <edge id=":114661564_0" function="internal">
        <lane id=":114661564_0_0" index="0" disallow="tram rail_urban rail rail_electric rail_fast ship" speed="19.44" length="0.30" shape="2099.03,6347.80 2098.83,6348.03"/>
    </edge>
    <edge id=":114661564_1" function="internal">
        <lane id=":114661564_1_0" index="0" disallow="tram rail_urban rail rail_electric rail_fast ship" speed="19.44" length="0.20" shape="2096.49,6345.84 2096.62,6345.70"/>
    </edge>
    <edge id=":114661622_0" function="internal">
        <lane id=":114661622_0_0" index="0" disallow="pedestrian bicycle tram rail_urban rail rail_electric rail_fast ship" speed="15.23" length="7.55" shape="2146.91,5655.66 2146.48,5653.51 2145.84,5652.13 2144.91,5650.85 2143.62,5649.01"/>
    </edge>
    <edge id=":114661622_1" function="internal">
        <lane id=":114661622_1_0" index="0" disallow="pedestrian bicycle tram rail_urban rail rail_electric rail_fast ship" speed="3.65" length="1.32" shape="2146.91,5655.66 2147.50,5654.48"/>
    </edge>
    <edge id=":114661622_3" function="internal">
        <lane id=":114661622_3_0" index="0" disallow="pedestrian bicycle tram rail_urban rail rail_electric rail_fast ship" speed="3.65" length="3.35" shape="2147.50,5654.48 2147.56,5654.37 2148.30,5653.88 2149.14,5654.18 2150.09,5655.27"/>
    </edge>
    <edge id=":114661622_2" function="internal">
        <lane id=":114661622_2_0" index="0" disallow="pedestrian bicycle tram rail_urban rail rail_electric rail_fast ship" speed="20.83" length="8.24" shape="2147.10,5647.67 2147.78,5649.98 2148.66,5651.46 2149.50,5652.94 2150.09,5655.27"/>
    </edge>
    <edge id=":11582374214_0" function="internal">
        <lane id=":11582374214_0_0" index="0" disallow="tram rail_urban rail rail_electric rail_fast ship" speed="19.44" length="8.00" shape="13960.70,3546.51 13957.91,3539.01"/>
    </edge>
    <edge id=":11582374214_1" function="internal">
        <lane id=":11582374214_1_0" index="0" disallow="tram rail_urban rail rail_electric rail_fast ship" speed="19.44" length="8.81" shape="13963.91,3536.78 13964.30,3539.26 13963.81,3541.08 13963.31,3542.91 13963.70,3545.39"/>
    </edge>
    <edge id=":118720735_0" function="internal">
        <lane id=":118720735_0_0" index="0" disallow="tram rail_urban rail rail_electric rail_fast ship" speed="13.89" length="0.10" shape="1336.56,6713.67 1336.62,6713.61"/>
    </edge>
    <edge id=":118720735_1" function="internal">
        <lane id=":118720735_1_0" index="0" disallow="tram rail_urban rail rail_electric rail_fast ship" speed="13.89" length="0.10" shape="1334.28,6711.42 1334.34,6711.37"/>
    </edge>
    <edge id=":1191517834_0" function="internal">
        <lane id=":1191517834_0_0" index="0" disallow="tram rail_urban rail rail_electric rail_fast ship" speed="27.78" length="0.31" shape="11986.97,3671.72 11986.83,3671.44"/>
    </edge>
    <edge id=":1191517834_1" function="internal">
        <lane id=":1191517834_1_0" index="0" disallow="tram rail_urban rail rail_electric rail_fast ship" speed="27.78" length="0.10" shape="11989.74,3670.10 11989.79,3670.20"/>
    </edge>
    <edge id=":12201333883_0" function="internal">