<?xml version="1.0" encoding="UTF-8"?>

<!-- generated on 2025-11-02 14:19:50 by Eclipse SUMO netgenerate Version 1.18.0
<configuration xmlns:xsi="http://www.w3.org/2001/XMLSchema-instance" xsi:noNamespaceSchemaLocation="http://sumo.dlr.de/xsd/netgenerateConfiguration.xsd">

    <grid_network>
        <grid value="true"/>
        <grid.number value="3"/>
        <grid.length value="5000"/>
    </grid_network>

    <output>
        <output-file value="my_5km_grid.net.xml"/>
    </output>

</configuration>
-->

<net version="1.16" junctionCornerDetail="5" limitTurnSpeed="5.50" xmlns:xsi="http://www.w3.org/2001/XMLSchema-instance" xsi:noNamespaceSchemaLocation="http://sumo.dlr.de/xsd/net_file.xsd">

    <location netOffset="0.00,0.00" convBoundary="0.00,0.00,10000.00,10000.00" origBoundary="0.00,0.00,10000.00,10000.00" projParameter="!"/>

    <edge id=":A0_0" function="internal">
        <lane id=":A0_0_0" index="0" speed="6.08" length="7.74" shape="-1.60,3.20 -1.30,1.10 -0.40,-0.40 1.10,-1.30 3.20,-1.60"/>
    </edge>
    <edge id=":A0_1" function="internal">
        <lane id=":A0_1_0" index="0" speed="3.90" length="2.58" shape="3.20,1.60 2.50,1.70 2.00,2.00 1.70,2.50 1.60,3.20"/>
    </edge>
    <edge id=":A1_0" function="internal">
        <lane id=":A1_0_0" index="0" speed="13.89" length="14.40" shape="-1.60,5007.20 -1.60,4992.80"/>
    </edge>
    <edge id=":A1_1" function="internal">
        <lane id=":A1_1_0" index="0" speed="8.00" length="4.07" shape="-1.60,5007.20 -1.05,5003.35 -0.96,5003.20"/>
    </edge>
    <edge id=":A1_2" function="internal">
        <lane id=":A1_2_0" index="0" speed="3.65" length="1.44" shape="-1.60,5007.20 -0.80,5006.00"/>
    </edge>
    <edge id=":A1_9" function="internal">
        <lane id=":A1_9_0" index="0" speed="8.00" length="10.13" shape="-0.96,5003.20 0.60,5000.60 3.35,4998.95 7.20,4998.40"/>
    </edge>
    <edge id=":A1_10" function="internal">
        <lane id=":A1_10_0" index="0" speed="3.65" length="3.23" shape="-0.80,5006.00 0.00,5005.60 0.80,5006.00 1.60,5007.20"/>
    </edge>
    <edge id=":A1_3" function="internal">
        <lane id=":A1_3_0" index="0" speed="6.51" length="9.03" shape="7.20,5001.60 4.75,5001.95 3.00,5003.00 1.95,5004.75 1.60,5007.20"/>
    </edge>
    <edge id=":A1_4" function="internal">
        <lane id=":A1_4_0" index="0" speed="8.00" length="14.19" shape="7.20,5001.60 3.35,5001.05 0.60,4999.40 -1.05,4996.65 -1.60,4992.80"/>
    </edge>
    <edge id=":A1_5" function="internal">
        <lane id=":A1_5_0" index="0" speed="3.65" length="4.67" shape="7.20,5001.60 6.00,5000.80 5.60,5000.00 6.00,4999.20 7.20,4998.40"/>
    </edge>
    <edge id=":A1_6" function="internal">
        <lane id=":A1_6_0" index="0" speed="6.51" length="9.03" shape="1.60,4992.80 1.95,4995.25 3.00,4997.00 4.75,4998.05 7.20,4998.40"/>
    </edge>
    <edge id=":A1_7" function="internal">
        <lane id=":A1_7_0" index="0" speed="13.89" length="14.40" shape="1.60,4992.80 1.60,5007.20"/>
    </edge>
    <edge id=":A1_8" function="internal">
        <lane id=":A1_8_0" index="0" speed="3.65" length="1.44" shape="1.60,4992.80 0.80,4994.00"/>
    </edge>
    <edge id=":A1_11" function="internal">
        <lane id=":A1_11_0" index="0" speed="3.65" length="3.23" shape="0.80,4994.00 0.00,4994.40 -0.80,4994.00 -1.60,4992.80"/>
    </edge>
    <edge id=":A2_0" function="internal">
        <lane id=":A2_0_0" index="0" speed="6.08" length="7.74" shape="3.20,10001.60 1.10,10001.30 -0.40,10000.40 -1.30,9998.90 -1.60,9996.80"/>
    </edge>
    <edge id=":A2_1" function="internal">
        <lane id=":A2_1_0" index="0" speed="3.90" length="2.58" shape="1.60,9996.80 1.70,9997.50 2.00,9998.00 2.50,9998.30 3.20,9998.40"/>
    </edge>
    <edge id=":B0_0" function="internal">
        <lane id=":B0_0_0" index="0" speed="6.51" length="9.03" shape="4998.40,7.20 4998.05,4.75 4997.00,3.00 4995.25,1.95 4992.80,1.60"/>
    </edge>
    <edge id=":B0_1" function="internal">
        <lane id=":B0_1_0" index="0" speed="8.00" length="14.19" shape="4998.40,7.20 4998.95,3.35 5000.60,0.60 5003.35,-1.05 5007.20,-1.60"/>
    </edge>
    <edge id=":B0_2" function="internal">
        <lane id=":B0_2_0" index="0" speed="3.65" length="4.67" shape="4998.40,7.20 4999.20,6.00 5000.00,5.60 5000.80,6.00 5001.60,7.20"/>
    </edge>
    <edge id=":B0_3" function="internal">
        <lane id=":B0_3_0" index="0" speed="6.51" length="9.03" shape="5007.20,1.60 5004.75,1.95 5003.00,3.00 5001.95,4.75 5001.60,7.20"/>
    </edge>
    <edge id=":B0_4" function="internal">
        <lane id=":B0_4_0" index="0" speed="13.89" length="14.40" shape="5007.20,1.60 4992.80,1.60"/>
    </edge>
    <edge id=":B0_5" function="internal">
        <lane id=":B0_5_0" index="0" speed="3.65" length="1.44" shape="5007.20,1.60 5006.00,0.80"/>
    </edge>
    <edge id=":B0_9" function="internal">
        <lane id=":B0_9_0" index="0" speed="3.65" length="3.23" shape="5006.00,0.80 5005.60,0.00 5006.00,-0.80 5007.20,-1.60"/>
    </edge>
    <edge id=":B0_6" function="internal">
        <lane id=":B0_6_0" index="0" speed="13.89" length="14.40" shape="4992.80,-1.60 5007.20,-1.60"/>
    </edge>
    <edge id=":B0_7" function="internal">
        <lane id=":B0_7_0" index="0" speed="8.00" length="4.07" shape="4992.80,-1.60 4996.65,-1.05 4996.80,-0.96"/>
    </edge>
    <edge id=":B0_8" function="internal">
        <lane id=":B0_8_0" index="0" speed="3.65" length="1.44" shape="4992.80,-1.60 4994.00,-0.80"/>
    </edge>
    <edge id=":B0_10" function="internal">
        <lane id=":B0_10_0" index="0" speed="8.00" length="10.13" shape="4996.80,-0.96 4999.40,0.60 5001.05,3.35 5001.60,7.20"/>
    </edge>
    <edge id=":B0_11" function="internal">
        <lane id=":B0_11_0" index="0" speed="3.65" length="3.23" shape="4994.00,-0.80 4994.40,0.00 4994.00,0.80 4992.80,1.60"/>
    </edge>
    <edge id=":B1_0" function="internal">
        <lane id=":B1_0_0" index="0" speed="6.51" length="9.03" shape="4998.40,5007.20 4998.05,5004.75 4997.00,5003.00 4995.25,5001.95 4992.80,5001.60"/>
    </edge>
    <edge id=":B1_1" function="internal">
        <lane id=":B1_1_0" index="0" speed="13.89" length="14.40" shape="4998.40,5007.20 4998.40,4992.80"/>
    </edge>
    <edge id=":B1_2" function="internal">
        <lane id=":B1_2_0" index="0" speed="8.00" length="4.07" shape="4998.40,5007.20 4998.95,5003.35 4999.04,5003.20"/>
    </edge>
    <edge id=":B1_3" function="internal">
        <lane id=":B1_3_0" index="0" speed="3.65" length="1.44" shape="4998.40,5007.20 4999.20,5006.00"/>
    </edge>
    <edge id=":B1_16" function="internal">
        <lane id=":B1_16_0" index="0" speed="8.00" length="10.13" shape="4999.04,5003.20 5000.60,5000.60 5003.35,4998.95 5007.20,4998.40"/>
    </edge>
    <edge id=":B1_17" function="internal">
        <lane id=":B1_17_0" index="0" speed="3.65" length="3.23" shape="4999.20,5006.00 5000.00,5005.60 5000.80,5006.00 5001.60,5007.20"/>
    </edge>
    <edge id=":B1_4" function="internal">
        <lane id=":B1_4_0" index="0" speed="6.51" length="9.03" shape="5007.20,5001.60 5004.75,5001.95 5003.00,5003.00 5001.95,5004.75 5001.60,5007.20"/>
    </edge>
    <edge id=":B1_5" function="internal">
        <lane id=":B1_5_0" index="0" speed="13.89" length="14.40" shape="5007.20,5001.60 4992.80,5001.60"/>
    </edge>
    <edge id=":B1_6" function="internal">
        <lane id=":B1_6_0" index="0" speed="8.00" length="14.19" shape="5007.20,5001.60 5003.35,5001.05 5000.60,4999.40 4998.95,4996.65 4998.40,4992.80"/>
    </edge>
    <edge id=":B1_7" function="internal">
        <lane id=":B1_7_0" index="0" speed="3.65" length="4.67" shape="5007.20,5001.60 5006.00,5000.80 5005.60,5000.00 5006.00,4999.20 5007.20,4998.40"/>
    </edge>
    <edge id=":B1_8" function="internal">
        <lane id=":B1_8_0" index="0" speed="6.51" length="9.03" shape="5001.60,4992.80 5001.95,4995.25 5003.00,4997.00 5004.75,4998.05 5007.20,4998.40"/>
    </edge>
    <edge id=":B1_9" function="internal">
        <lane id=":B1_9_0" index="0" speed="13.89" length="14.40" shape="5001.60,4992.80 5001.60,5007.20"/>
    </edge>
    <edge id=":B1_10" function="internal">
        <lane id=":B1_10_0" index="0" speed="8.00" length="4.07" shape="5001.60,4992.80 5001.05,4996.65 5000.96,4996.80"/>
    </edge>
    <edge id=":B1_11" function="internal">
        <lane id=":B1_11_0" index="0" speed="3.65" length="1.44" shape="5001.60,4992.80 5000.80,4994.00"/>
    </edge>
    <edge id=":B1_18" function="internal">
        <lane id=":B1_18_0" index="0" speed="8.00" length="10.13" shape="5000.96,4996.80 4999.40,4999.40 4996.65,5001.05 4992.80,5001.60"/>
    </edge>
    <edge id=":B1_19" function="internal">
        <lane id=":B1_19_0" index="0" speed="3.65" length="3.23" shape="5000.80,4994.00 5000.00,4994.40 4999.20,4994.00 4998.40,4992.80"/>
    </edge>
    <edge id=":B1_12" function="internal">
        <lane id=":B1_12_0" index="0" speed="6.51" length="9.03" shape="4992.80,4998.40 4995.25,4998.05 4997.00,4997.00 4998.05,4995.25 4998.40,4992.80"/>
    </edge>
    <edge id=":B1_13" function="internal">
        <lane id=":B1_13_0" index="0" speed="13.89" length="14.40" shape="4992.80,4998.40 5007.20,4998.40"/>
    </edge>
    <edge id=":B1_14" function="internal">
        <lane id=":B1_14_0" index="0" speed="8.00" length="14.19" shape="4992.80,4998.40 4996.65,4998.95 4999.40,5000.60 5001.05,5003.35 5001.60,5007.20"/>
    </edge>
    <edge id=":B1_15" function="internal">
        <lane id=":B1_15_0" index="0" speed="3.65" length="4.67" shape="4992.80,4998.40 4994.00,4999.20 4994.40,5000.00 4994.00,5000.80 4992.80,5001.60"/>
    </edge>
    <edge id=":B2_0" function="internal">
        <lane id=":B2_0_0" index="0" speed="13.89" length="14.40" shape="5007.20,10001.60 4992.80,10001.60"/>
    </edge>
    <edge id=":B2_1" function="internal">
        <lane id=":B2_1_0" index="0" speed="8.00" length="4.07" shape="5007.20,10001.60 5003.35,10001.05 5003.20,10000.96"/>
    </edge>
    <edge id=":B2_2" function="internal">
        <lane id=":B2_2_0" index="0" speed="3.65" length="1.44" shape="5007.20,10001.60 5006.00,10000.80"/>
    </edge>
    <edge id=":B2_9" function="internal">
        <lane id=":B2_9_0" index="0" speed="8.00" length="10.13" shape="5003.20,10000.96 5000.60,9999.40 4998.95,9996.65 4998.40,9992.80"/>
    </edge>
    <edge id=":B2_10" function="internal">
        <lane id=":B2_10_0" index="0" speed="3.65" length="3.23" shape="5006.00,10000.80 5005.60,10000.00 5006.00,9999.20 5007.20,9998.40"/>
    </edge>
    <edge id=":B2_3" function="internal">
        <lane id=":B2_3_0" index="0" speed="6.51" length="9.03" shape="5001.60,9992.80 5001.95,9995.25 5003.00,9997.00 5004.75,9998.05 5007.20,9998.40"/>
    </edge>
    <edge id=":B2_4" function="internal">
        <lane id=":B2_4_0" index="0" speed="8.00" length="14.19" shape="5001.60,9992.80 5001.05,9996.65 4999.40,9999.40 4996.65,10001.05 4992.80,10001.60"/>
    </edge>
    <edge id=":B2_5" function="internal">
        <lane id=":B2_5_0" index="0" speed="3.65" length="4.67" shape="5001.60,9992.80 5000.80,9994.00 5000.00,9994.40 4999.20,9994.00 4998.40,9992.80"/>
    </edge>
    <edge id=":B2_6" function="internal">
        <lane id=":B2_6_0" index="0" speed="6.51" length="9.03" shape="4992.80,9998.40 4995.25,9998.05 4997.00,9997.00 4998.05,9995.25 4998.40,9992.80"/>
    </edge>
    <edge id=":B2_7" function="internal">
        <lane id=":B2_7_0" index="0" speed="13.89" length="14.40" shape="4992.80,9998.40 5007.20,9998.40"/>
    </edge>
    <edge id=":B2_8" function="internal">
        <lane id=":B2_8_0" index="0" speed="3.65" length="1.44" shape="4992.80,9998.40 4994.00,9999.20"/>
    </edge>
    <edge id=":B2_11" function="internal">
        <lane id=":B2_11_0" index="0" speed="3.65" length="3.23" shape="4994.00,9999.20 4994.40,10000.00 4994.00,10000.80 4992.80,10001.60"/>
    </edge>
    <edge id=":C0_0" function="internal">
        <lane id=":C0_0_0" index="0" speed="3.90" length="2.58" shape="9998.40,3.20 9998.30,2.50 9998.00,2.00 9997.50,1.70 9996.80,1.60"/>
    </edge>
    <edge id=":C0_1" function="internal">
        <lane id=":C0_1_0" index="0" speed="6.08" length="7.74" shape="9996.80,-1.60 9998.90,-1.30 10000.40,-0.40 10001.30,1.10 10001.60,3.20"/>
    </edge>
    <edge id=":C1_0" function="internal">
        <lane id=":C1_0_0" index="0" speed="6.51" length="9.03" shape="9998.40,5007.20 9998.05,5004.75 9997.00,5003.00 9995.25,5001.95 9992.80,5001.60"/>
    </edge>
    <edge id=":C1_1" function="internal">
        <lane id=":C1_1_0" index="0" speed="13.89" length="14.40" shape="9998.40,5007.20 9998.40,4992.80"/>
    </edge>
    <edge id=":C1_2" function="internal">
        <lane id=":C1_2_0" index="0" speed="3.65" length="1.44" shape="9998.40,5007.20 9999.20,5006.00"/>
    </edge>
    <edge id=":C1_9" function="internal">
        <lane id=":C1_9_0" index="0" speed="3.65" length="3.23" shape="9999.20,5006.00 10000.00,5005.60 10000.80,5006.00 10001.60,5007.20"/>
    </edge>
    <edge id=":C1_3" function="internal">
        <lane id=":C1_3_0" index="0" speed="13.89" length="14.40" shape="10001.60,4992.80 10001.60,5007.20"/>
    </edge>
    <edge id=":C1_4" function="internal">
        <lane id=":C1_4_0" index="0" speed="8.00" length="4.07" shape="10001.60,4992.80 10001.05,4996.65 10000.96,4996.80"/>
    </edge>
    <edge id=":C1_5" function="internal">
        <lane id=":C1_5_0" index="0" speed="3.65" length="1.44" shape="10001.60,4992.80 10000.80,4994.00"/>
    </edge>
    <edge id=":C1_10" function="internal">
        <lane id=":C1_10_0" index="0" speed="8.00" length="10.13" shape="10000.96,4996.80 9999.40,4999.40 9996.65,5001.05 9992.80,5001.60"/>
    </edge>
    <edge id=":C1_11" function="internal">
        <lane id=":C1_11_0" index="0" speed="3.65" length="3.23" shape="10000.80,4994.00 10000.00,4994.40 9999.20,4994.00 9998.40,4992.80"/>
    </edge>
    <edge id=":C1_6" function="internal">
        <lane id=":C1_6_0" index="0" speed="6.51" length="9.03" shape="9992.80,4998.40 9995.25,4998.05 9997.00,4997.00 9998.05,4995.25 9998.40,4992.80"/>
    </edge>
    <edge id=":C1_7" function="internal">
        <lane id=":C1_7_0" index="0" speed="8.00" length="14.19" shape="9992.80,4998.40 9996.65,4998.95 9999.40,5000.60 10001.05,5003.35 10001.60,5007.20"/>
    </edge>
    <edge id=":C1_8" function="internal">
        <lane id=":C1_8_0" index="0" speed="3.65" length="4.67" shape="9992.80,4998.40 9994.00,4999.20 9994.40,5000.00 9994.00,5000.80 9992.80,5001.60"/>
    </edge>
    <edge id=":C2_0" function="internal">
        <lane id=":C2_0_0" index="0" speed="6.08" length="7.74" shape="10001.60,9996.80 10001.30,9998.90 10000.40,10000.40 9998.90,10001.30 9996.80,10001.60"/>
    </edge>
    <edge id=":C2_1" function="internal">
        <lane id=":C2_1_0" index="0" speed="3.90" length="2.58" shape="9996.80,9998.40 9997.50,9998.30 9998.00,9998.00 9998.30,9997.50 9998.40,9996.80"/>
    </edge>

    <edge id="A0A1" from="A0" to="A1" priority="-1">
        <lane id="A0A1_0" index="0" speed="13.89" length="4989.60" shape="1.60,3.20 1.60,4992.80"/>
    </edge>
    <edge id="A0B0" from="A0" to="B0" priority="-1">
        <lane id="A0B0_0" index="0" speed="13.89" length="4989.60" shape="3.20,-1.60 4992.80,-1.60"/>
    </edge>
    <edge id="A1A0" from="A1" to="A0" priority="-1">
        <lane id="A1A0_0" index="0" speed="13.89" length="4989.60" shape="-1.60,4992.80 -1.60,3.20"/>
    </edge>
    <edge id="A1A2" from="A1" to="A2" priority="-1">
        <lane id="A1A2_0" index="0" speed="13.89" length="4989.60" shape="1.60,5007.20 1.60,9996.80"/>
    </edge>
    <edge id="A1B1" from="A1" to="B1" priority="-1">
        <lane id="A1B1_0" index="0" speed="13.89" length="4985.60" shape="7.20,4998.40 4992.80,4998.40"/>
    </edge>
    <edge id="A2A1" from="A2" to="A1" priority="-1">
        <lane id="A2A1_0" index="0" speed="13.89" length="4989.60" shape="-1.60,9996.80 -1.60,5007.20"/>
    </edge>
    <edge id="A2B2" from="A2" to="B2" priority="-1">
        <lane id="A2B2_0" index="0" speed="13.89" length="4989.60" shape="3.20,9998.40 4992.80,9998.40"/>
    </edge>
    <edge id="B0A0" from="B0" to="A0" priority="-1">
        <lane id="B0A0_0" index="0" speed="13.89" length="4989.60" shape="4992.80,1.60 3.20,1.60"/>
    </edge>
    <edge id="B0B1" from="B0" to="B1" priority="-1">
        <lane id="B0B1_0" index="0" speed="13.89" length="4985.60" shape="5001.60,7.20 5001.60,4992.80"/>
    </edge>
    <edge id="B0C0" from="B0" to="C0" priority="-1">
        <lane id="B0C0_0" index="0" speed="13.89" length="4989.60" shape="5007.20,-1.60 9996.80,-1.60"/>
    </edge>
    <edge id="B1A1" from="B1" to="A1" priority="-1">
        <lane id="B1A1_0" index="0" speed="13.89" length="4985.60" shape="4992.80,5001.60 7.20,5001.60"/>
    </edge>
    <edge id="B1B0" from="B1" to="B0" priority="-1">
        <lane id="B1B0_0" index="0" speed="13.89" length="4985.60" shape="4998.40,4992.80 4998.40,7.20"/>
    </edge>
    <edge id="B1B2" from="B1" to="B2" priority="-1">
        <lane id="B1B2_0" index="0" speed="13.89" length="4985.60" shape="5001.60,5007.20 5001.60,9992.80"/>
    </edge>
    <edge id="B1C1" from="B1" to="C1" priority="-1">
        <lane id="B1C1_0" index="0" speed="13.89" length="4985.60" shape="5007.20,4998.40 9992.80,4998.40"/>
    </edge>
    <edge id="B2A2" from="B2" to="A2" priority="-1">
        <lane id="B2A2_0" index="0" speed="13.89" length="4989.60" shape="4992.80,10001.60 3.20,10001.60"/>
    </edge>
    <edge id="B2B1" from="B2" to="B1" priority="-1">
        <lane id="B2B1_0" index="0" speed="13.89" length="4985.60" shape="4998.40,9992.80 4998.40,5007.20"/>
    </edge>
    <edge id="B2C2" from="B2" to="C2" priority="-1">
        <lane id="B2C2_0" index="0" speed="13.89" length="4989.60" shape="5007.20,9998.40 9996.80,9998.40"/>
    </edge>
    <edge id="C0B0" from="C0" to="B0" priority="-1">
        <lane id="C0B0_0" index="0" speed="13.89" length="4989.60" shape="9996.80,1.60 5007.20,1.60"/>
    </edge>
    <edge id="C0C1" from="C0" to="C1" priority="-1">
        <lane id="C0C1_0" index="0" speed="13.89" length="4989.60" shape="10001.60,3.20 10001.60,4992.80"/>
    </edge>
    <edge id="C1B1" from="C1" to="B1" priority="-1">
        <lane id="C1B1_0" index="0" speed="13.89" length="4985.60" shape="9992.80,5001.60 5007.20,5001.60"/>
    </edge>
    <edge id="C1C0" from="C1" to="C0" priority="-1">
        <lane id="C1C0_0" index="0" speed="13.89" length="4989.60" shape="9998.40,4992.80 9998.40,3.20"/>
    </edge>
    <edge id="C1C2" from="C1" to="C2" priority="-1">
        <lane id="C1C2_0" index="0" speed="13.89" length="4989.60" shape="10001.60,5007.20 10001.60,9996.80"/>
    </edge>
    <edge id="C2B2" from="C2" to="B2" priority="-1">
        <lane id="C2B2_0" index="0" speed="13.89" length="4989.60" shape="9996.80,10001.60 5007.20,10001.60"/>
    </edge>
    <edge id="C2C1" from="C2" to="C1" priority="-1">
        <lane id="C2C1_0" index="0" speed="13.89" length="4989.60" shape="9998.40,9996.80 9998.40,5007.20"/>
    </edge>

    <junction id="A0" type="priority" x="0.00" y="0.00" incLanes="A1A0_0 B0A0_0" intLanes=":A0_0_0 :A0_1_0" shape="-3.20,3.20 3.20,3.20 3.20,-3.20 -0.36,-2.49 -1.60,-1.60 -2.49,-0.36 -3.02,1.24">
        <request index="0" response="00" foes="00" cont="0"/>
        <request index="1" response="00" foes="00" cont="0"/>
    </junction>
    <junction id="A1" type="priority" x="0.00" y="5000.00" incLanes="A2A1_0 B1A1_0 A0A1_0" intLanes=":A1_0_0 :A1_9_0 :A1_10_0 :A1_3_0 :A1_4_0 :A1_5_0 :A1_6_0 :A1_7_0 :A1_11_0" shape="-3.20,5007.20 3.20,5007.20 3.64,5004.98 4.20,5004.20 4.98,5003.64 5.98,5003.31 7.20,5003.20 7.20,4996.80 4.98,4996.36 4.20,4995.80 3.64,4995.02 3.31,4994.02 3.20,4992.80 -3.20,4992.80">
        <request index="0" response="000000000" foes="100010000" cont="0"/>
        <request index="1" response="011000000" foes="011110000" cont="1"/>
        <request index="2" response="010001000" foes="010001000" cont="1"/>
        <request index="3" response="010000000" foes="010000100" cont="0"/>
        <request index="4" response="010000011" foes="110000011" cont="0"/>
        <request index="5" response="001000010" foes="001000010" cont="0"/>
        <request index="6" response="000000000" foes="000100010" cont="0"/>
        <request index="7" response="000000000" foes="000011110" cont="0"/>
        <request index="8" response="000010001" foes="000010001" cont="1"/>
    </junction>
    <junction id="A2" type="priority" x="0.00" y="10000.00" incLanes="B2A2_0 A1A2_0" intLanes=":A2_0_0 :A2_1_0" shape="3.20,10003.20 3.20,9996.80 -3.20,9996.80 -2.49,10000.36 -1.60,10001.60 -0.36,10002.49 1.24,10003.02">
        <request index="0" response="00" foes="00" cont="0"/>
        <request index="1" response="00" foes="00" cont="0"/>
    </junction>
    <junction id="B0" type="priority" x="5000.00" y="0.00" incLanes="B1B0_0 C0B0_0 A0B0_0" intLanes=":B0_0_0 :B0_1_0 :B0_2_0 :B0_3_0 :B0_4_0 :B0_9_0 :B0_6_0 :B0_10_0 :B0_11_0" shape="4996.80,7.20 5003.20,7.20 5003.64,4.98 5004.20,4.20 5004.98,3.64 5005.98,3.31 5007.20,3.20 5007.20,-3.20 4992.80,-3.20 4992.80,3.20 4995.02,3.64 4995.80,4.20 4996.36,4.98 4996.69,5.98">
        <request index="0" response="000010000" foes="100010000" cont="0"/>
        <request index="1" response="011010000" foes="011110000" cont="0"/>
        <request index="2" response="010001000" foes="010001000" cont="0"/>
        <request index="3" response="000000000" foes="010000100" cont="0"/>
        <request index="4" response="000000000" foes="110000011" cont="0"/>
        <request index="5" response="001000010" foes="001000010" cont="1"/>
        <request index="6" response="000000000" foes="000100010" cont="0"/>
        <request index="7" response="000011000" foes="000011110" cont="1"/>
        <request index="8" response="000010001" foes="000010001" cont="1"/>
    </junction>
    <junction id="B1" type="priority" x="5000.00" y="5000.00" incLanes="B2B1_0 C1B1_0 B0B1_0 A1B1_0" intLanes=":B1_0_0 :B1_1_0 :B1_16_0 :B1_17_0 :B1_4_0 :B1_5_0 :B1_6_0 :B1_7_0 :B1_8_0 :B1_9_0 :B1_18_0 :B1_19_0 :B1_12_0 :B1_13_0 :B1_14_0 :B1_15_0" shape="4996.80,5007.20 5003.20,5007.20 5003.64,5004.98 5004.20,5004.20 5004.98,5003.64 5005.98,5003.31 5007.20,5003.20 5007.20,4996.80 5004.98,4996.36 5004.20,4995.80 5003.64,4995.02 5003.31,4994.02 5003.20,4992.80 4996.80,4992.80 4996.36,4995.02 4995.80,4995.80 4995.02,4996.36 4994.02,4996.69 4992.80,4996.80 4992.80,5003.20 4995.02,5003.64 4995.80,5004.20 4996.36,5004.98 4996.69,5005.98">
        <request index="0"  response="0000000000000000" foes="1000010000100000" cont="0"/>
        <request index="1"  response="0000000000000000" foes="0111110001100000" cont="0"/>
        <request index="2"  response="0000001100000000" foes="0110011111100000" cont="1"/>
        <request index="3"  response="0100001000010000" foes="0100001000010000" cont="1"/>
        <request index="4"  response="0000001000000000" foes="0100001000001000" cont="0"/>
        <request index="5"  response="0000011000000111" foes="1100011000000111" cont="0"/>
        <request index="6"  response="0011011000000110" foes="0111111000000110" cont="0"/>
        <request index="7"  response="0010000100000100" foes="0010000100000100" cont="0"/>
        <request index="8"  response="0000000000000000" foes="0010000010000100" cont="0"/>
        <request index="9"  response="0000000000000000" foes="0110000001111100" cont="0"/>
        <request index="10" response="0000000000000111" foes="1110000001100111" cont="1"/>
        <request index="11" response="0001000001000010" foes="0001000001000010" cont="1"/>
        <request index="12" response="0000000000000010" foes="0000100001000010" cont="0"/>
        <request index="13" response="0000011100000110" foes="0000011111000110" cont="0"/>
        <request index="14" response="0000011001110110" foes="0000011001111110" cont="0"/>
        <request index="15" response="0000010000100001" foes="0000010000100001" cont="0"/>
    </junction>
    <junction id="B2" type="priority" x="5000.00" y="10000.00" incLanes="C2B2_0 B1B2_0 A2B2_0" intLanes=":B2_0_0 :B2_9_0 :B2_10_0 :B2_3_0 :B2_4_0 :B2_5_0 :B2_6_0 :B2_7_0 :B2_11_0" shape="5007.20,10003.20 5007.20,9996.80 5004.98,9996.36 5004.20,9995.80 5003.64,9995.02 5003.31,9994.02 5003.20,9992.80 4996.80,9992.80 4996.36,9995.02 4995.80,9995.80 4995.02,9996.36 4994.02,9996.69 4992.80,9996.80 4992.80,10003.20">
        <request index="0" response="000000000" foes="100010000" cont="0"/>
        <request index="1" response="011000000" foes="011110000" cont="1"/>
        <request index="2" response="010001000" foes="010001000" cont="1"/>
        <request index="3" response="010000000" foes="010000100" cont="0"/>
        <request index="4" response="010000011" foes="110000011" cont="0"/>
        <request index="5" response="001000010" foes="001000010" cont="0"/>
        <request index="6" response="000000000" foes="000100010" cont="0"/>
        <request index="7" response="000000000" foes="000011110" cont="0"/>
        <request index="8" response="000010001" foes="000010001" cont="1"/>
    </junction>
    <junction id="C0" type="priority" x="10000.00" y="0.00" incLanes="C1C0_0 B0C0_0" intLanes=":C0_0_0 :C0_1_0" shape="9996.80,3.20 10003.20,3.20 10002.49,-0.36 10001.60,-1.60 10000.36,-2.49 9998.76,-3.02 9996.80,-3.20">
        <request index="0" response="00" foes="00" cont="0"/>
        <request index="1" response="00" foes="00" cont="0"/>
    </junction>
    <junction id="C1" type="priority" x="10000.00" y="5000.00" incLanes="C2C1_0 C0C1_0 B1C1_0" intLanes=":C1_0_0 :C1_1_0 :C1_9_0 :C1_3_0 :C1_10_0 :C1_11_0 :C1_6_0 :C1_7_0 :C1_8_0" shape="9996.80,5007.20 10003.20,5007.20 10003.20,4992.80 9996.80,4992.80 9996.36,4995.02 9995.80,4995.80 9995.02,4996.36 9994.02,4996.69 9992.80,4996.80 9992.80,5003.20 9995.02,5003.64 9995.80,5004.20 9996.36,5004.98 9996.69,5005.98">
        <request index="0" response="000000000" foes="100010000" cont="0"/>
        <request index="1" response="000000000" foes="011110000" cont="0"/>
        <request index="2" response="010001000" foes="010001000" cont="1"/>
        <request index="3" response="000000000" foes="010000100" cont="0"/>
        <request index="4" response="000000011" foes="110000011" cont="1"/>
        <request index="5" response="001000010" foes="001000010" cont="1"/>
        <request index="6" response="000000010" foes="000100010" cont="0"/>
        <request index="7" response="000011010" foes="000011110" cont="0"/>
        <request index="8" response="000010001" foes="000010001" cont="0"/>
    </junction>
    <junction id="C2" type="priority" x="10000.00" y="10000.00" incLanes="C1C2_0 B2C2_0" intLanes=":C2_0_0 :C2_1_0" shape="10003.20,9996.80 9996.80,9996.80 9996.80,10003.20 10000.36,10002.49 10001.60,10001.60 10002.49,10000.36 10003.02,9998.76">
        <request index="0" response="00" foes="00" cont="0"/>
        <request index="1" response="00" foes="00" cont="0"/>
    </junction>

    <junction id=":A1_9_0" type="internal" x="-0.96" y="5003.20" incLanes=":A1_1_0 A0A1_0" intLanes=":A1_4_0 :A1_5_0 :A1_6_0 :A1_7_0"/>
    <junction id=":A1_10_0" type="internal" x="-0.80" y="5006.00" incLanes=":A1_2_0 A0A1_0 B1A1_0" intLanes=":A1_3_0 :A1_7_0"/>
    <junction id=":A1_11_0" type="internal" x="0.80" y="4994.00" incLanes=":A1_8_0 A2A1_0 B1A1_0" intLanes=":A1_0_0 :A1_4_0"/>
    <junction id=":B0_9_0" type="internal" x="5006.00" y="0.80" incLanes=":B0_5_0 A0B0_0 B1B0_0" intLanes=":B0_1_0 :B0_6_0"/>
    <junction id=":B0_10_0" type="internal" x="4996.80" y="-0.96" incLanes=":B0_7_0 C0B0_0" intLanes=":B0_1_0 :B0_2_0 :B0_3_0 :B0_4_0"/>
    <junction id=":B0_11_0" type="internal" x="4994.00" y="-0.80" incLanes=":B0_8_0 B1B0_0 C0B0_0" intLanes=":B0_0_0 :B0_4_0"/>
    <junction id=":B1_16_0" type="internal" x="4999.04" y="5003.20" incLanes=":B1_2_0 B0B1_0" intLanes=":B1_5_0 :B1_6_0 :B1_7_0 :B1_8_0 :B1_9_0 :B1_13_0 :B1_14_0"/>
    <junction id=":B1_17_0" type="internal" x="4999.20" y="5006.00" incLanes=":B1_3_0 A1B1_0 B0B1_0 C1B1_0" intLanes=":B1_4_0 :B1_9_0 :B1_14_0"/>
    <junction id=":B1_18_0" type="internal" x="5000.96" y="4996.80" incLanes=":B1_10_0 B2B1_0" intLanes=":B1_0_0 :B1_1_0 :B1_5_0 :B1_6_0 :B1_13_0 :B1_14_0 :B1_15_0"/>
    <junction id=":B1_19_0" type="internal" x="5000.80" y="4994.00" incLanes=":B1_11_0 A1B1_0 B2B1_0 C1B1_0" intLanes=":B1_1_0 :B1_6_0 :B1_12_0"/>
    <junction id=":B2_9_0" type="internal" x="5003.20" y="10000.96" incLanes=":B2_1_0 A2B2_0" intLanes=":B2_4_0 :B2_5_0 :B2_6_0 :B2_7_0"/>
    <junction id=":B2_10_0" type="internal" x="5006.00" y="10000.80" incLanes=":B2_2_0 A2B2_0 B1B2_0" intLanes=":B2_3_0 :B2_7_0"/>
    <junction id=":B2_11_0" type="internal" x="4994.00" y="9999.20" incLanes=":B2_8_0 B1B2_0 C2B2_0" intLanes=":B2_0_0 :B2_4_0"/>
    <junction id=":C1_9_0" type="internal" x="9999.20" y="5006.00" incLanes=":C1_2_0 B1C1_0 C0C1_0" intLanes=":C1_3_0 :C1_7_0"/>
    <junction id=":C1_10_0" type="internal" x="10000.96" y="4996.80" incLanes=":C1_4_0 C2C1_0" intLanes=":C1_0_0 :C1_1_0 :C1_7_0 :C1_8_0"/>
    <junction id=":C1_11_0" type="internal" x="10000.80" y="4994.00" incLanes=":C1_5_0 B1C1_0 C2C1_0" intLanes=":C1_1_0 :C1_6_0"/>

    <connection from="A0A1" to="A1B1" fromLane="0" toLane="0" via=":A1_6_0" dir="r" state="M"/>
    <connection from="A0A1" to="A1A2" fromLane="0" toLane="0" via=":A1_7_0" dir="s" state="M"/>
    <connection from="A0A1" to="A1A0" fromLane="0" toLane="0" via=":A1_8_0" dir="t" state="m"/>
    <connection from="A0B0" to="B0C0" fromLane="0" toLane="0" via=":B0_6_0" dir="s" state="M"/>
    <connection from="A0B0" to="B0B1" fromLane="0" toLane="0" via=":B0_7_0" dir="l" state="m"/>
    <connection from="A0B0" to="B0A0" fromLane="0" toLane="0" via=":B0_8_0" dir="t" state="m"/>
    <connection from="A1A0" to="A0B0" fromLane="0" toLane="0" via=":A0_0_0" dir="l" state="M"/>
    <connection from="A1A2" to="A2B2" fromLane="0" toLane="0" via=":A2_1_0" dir="r" state="M"/>